# Title
# Created by GaussView 6.0.16
#

#
#

@<TRIPOS>MOLECULE
Molecule Name
8 7
SMALL
NO_CHARGES


@<TRIPOS>ATOM
1 C1    -0.5889    -0.6103     0.0000 C
2 H2    -1.1825     0.3138     0.0000 H
3 O3     0.6695    -0.6103     0.0000 O
4 O4    -1.3618    -1.8134    -0.0000 O
5 C5    -0.7063    -3.0843    -0.0024 C
6 H6    -0.0937    -3.1713     0.8705 H
7 H7    -1.4394    -3.8637    -0.0028 H
8 H8    -0.0954    -3.1689    -0.8768 H
@<TRIPOS>BOND
1 1 2 1
2 1 3 2
3 1 4 1
4 4 5 1
5 5 6 1
6 5 7 1
7 5 8 1
