# Molecule Name
# Created by GaussView 6.0.16
#

#
#

@<TRIPOS>MOLECULE
Molecule Name
4 3
SMALL
NO_CHARGES


@<TRIPOS>ATOM
1 N1    -0.2764     0.5632     0.0000 N
2 H2    -0.7519    -0.3165    -0.0000 H
3 O3    -0.9543     1.5986     0.0000 O
4 O4     0.9612     0.5632     0.0000 O
@<TRIPOS>BOND
1 1 2 1
2 1 3 Ar
3 1 4 Ar
