# Molecule Name
# Created by GaussView 6.0.16
#

#
#

@<TRIPOS>MOLECULE
Molecule Name
9 8
SMALL
NO_CHARGES


@<TRIPOS>ATOM
1 N1    -0.2764     0.5632     0.0000 N
2 H2     0.7069     0.3810    -0.0017 H
3 C3    -2.3071     1.9480     0.0000 C
4 H4    -2.6637     1.8678     1.0056 H
5 H5    -2.6643     2.8587    -0.4335 H
6 H6    -2.6633     1.1170    -0.5721 H
7 C7    -0.7671     1.9489     0.0000 C
8 O8    -0.0196     3.0120    -0.0656 O
9 H9    -0.9258    -0.1972     0.0017 H
@<TRIPOS>BOND
1 1 2 1
2 1 7 1
3 1 9 1
4 3 4 1
5 3 5 1
6 3 6 1
7 3 7 1
8 7 8 Ar
