# Molecule Name
# Created by GaussView 6.0.16
#

#
#

@<TRIPOS>MOLECULE
Molecule Name
10 9
SMALL
NO_CHARGES


@<TRIPOS>ATOM
1 N1    -0.2764     0.5632     0.0000 N
2 H2     0.7236     0.5638    -0.0018 H
3 C3    -0.7638    -0.1292     1.2016 C
4 H4    -1.8338    -0.1294     1.2038 H
5 H5    -0.4054     0.3757     2.0743 H
6 H6    -0.4070    -1.1380     1.2014 H
7 C7    -0.7671     1.9489     0.0000 C
8 H8    -0.4122     2.4529    -0.8746 H
9 H9    -1.8371     1.9483     0.0019 H
10 H10    -0.4091     2.4540     0.8727 H
@<TRIPOS>BOND
1 1 2 1
2 1 3 1
3 1 7 1
4 3 4 1
5 3 5 1
6 3 6 1
7 7 8 1
8 7 9 1
9 7 10 1
