# Molecule Name
# Created by GaussView 6.0.16
#

#
#

@<TRIPOS>MOLECULE
Molecule Name
14 13
SMALL
NO_CHARGES


@<TRIPOS>ATOM
1 C1    -0.2897     0.6009     0.0000 C
2 H2     0.0670    -0.4080     0.0000 H
3 C3     0.2237     1.3268     1.2574 C
4 H4    -0.1314     2.3362     1.2565 H
5 H5    -0.1346     0.8235     2.1311 H
6 H6     1.2937     1.3251     1.2584 H
7 C7    -1.8297     0.6009     0.0000 C
8 H8    -2.1864     1.6097     0.0004 H
9 H9    -2.1864     0.0968    -0.8739 H
10 H10    -2.1864     0.0961     0.8734 H
11 C11     0.2237     1.3268    -1.2574 C
12 H12     1.2937     1.3270    -1.2573 H
13 H13    -0.1328     0.8223    -2.1311 H
14 H14    -0.1332     2.3356    -1.2576 H
@<TRIPOS>BOND
1 1 2 1
2 1 3 1
3 1 7 1
4 1 11 1
5 3 4 1
6 3 5 1
7 3 6 1
8 7 8 1
9 7 9 1
10 7 10 1
11 11 12 1
12 11 13 1
13 11 14 1
