# Molecule Name
# Created by GaussView 6.0.16
#

#
#

@<TRIPOS>MOLECULE
Molecule Name
7 6
SMALL
NO_CHARGES


@<TRIPOS>ATOM
1 C1    -1.0756    -1.3886     0.0424 C
2 H2    -1.6678    -0.4492     0.0405 H
3 O3     0.1828    -1.3886     0.0445 O
4 C4    -1.8969    -2.6913     0.0425 C
5 H5    -2.9404    -2.4551     0.0428 H
6 H6    -1.6605    -3.2620    -0.8312 H
7 H7    -1.6602    -3.2621     0.9161 H
@<TRIPOS>BOND
1 1 2 1
2 1 3 2
3 1 4 1
4 4 5 1
5 4 6 1
6 4 7 1
