# Molecule Name
# Created by GaussView 6.0.16
#

#
#

@<TRIPOS>MOLECULE
Molecule Name
5 4
SMALL
NO_CHARGES


@<TRIPOS>ATOM
1 C1    -0.2897     0.6009     0.0000 C
2 H2     0.0670    -0.4080     0.0000 H
3 F3    -1.6397     0.6009     0.0000 F
4 F4     0.1604     1.2372    -1.1023 F
5 F5     0.1604     1.2372     1.1023 F
@<TRIPOS>BOND
1 1 2 1
2 1 3 1
3 1 4 1
4 1 5 1
