# Molecule Name
# Created by GaussView 6.0.16
#

#
#

@<TRIPOS>MOLECULE
Molecule Name
4 3
SMALL
NO_CHARGES


@<TRIPOS>ATOM
1 C1    -1.0756    -1.3886     0.0424 C
2 H2    -1.6678    -0.4492     0.0424 H
3 H3    -1.6678    -2.3280     0.0425 H
4 O4     0.1828    -1.3886     0.0424 O
@<TRIPOS>BOND
1 1 2 1
2 1 3 1
3 1 4 2
