# Molecule Name
# Created by GaussView 6.0.16
#

#
#

@<TRIPOS>MOLECULE
Molecule Name
11 10
SMALL
NO_CHARGES


@<TRIPOS>ATOM
1 C1    -0.2897     0.6009     0.0000 C
2 H2     0.0670    -0.4080     0.0000 H
3 H3     0.0670     1.1053    -0.8737 H
4 C4     0.2237     1.3268     1.2574 C
5 H5    -0.1314     2.3362     1.2565 H
6 H6    -0.1346     0.8235     2.1311 H
7 H7     1.2937     1.3251     1.2584 H
8 C8    -1.8297     0.6009     0.0000 C
9 H9    -2.1864     1.6097     0.0004 H
10 H10    -2.1864     0.0968    -0.8739 H
11 H11    -2.1864     0.0961     0.8734 H
@<TRIPOS>BOND
1 1 2 1
2 1 3 1
3 1 4 1
4 1 8 1
5 4 5 1
6 4 6 1
7 4 7 1
8 8 9 1
9 8 10 1
10 8 11 1
