# Title
# Created by GaussView 6.0.16
#

#
#

@<TRIPOS>MOLECULE
Molecule Name
5 4
SMALL
NO_CHARGES


@<TRIPOS>ATOM
1 C1    -0.2897     0.6009     0.0000 C
2 H2     0.0670    -0.4080     0.0000 H
3 H3     0.0670     1.1053     0.8737 H
4 H4     0.0670     1.1053    -0.8737 H
5 H5    -1.3597     0.6009     0.0000 H
@<TRIPOS>BOND
1 1 2 1
2 1 3 1
3 1 4 1
4 1 5 1
