# Molecule Name
# Created by GaussView 6.0.16
#

#
#

@<TRIPOS>MOLECULE
Molecule Name
4 3
SMALL
NO_CHARGES


@<TRIPOS>ATOM
1 N1    -0.2897     0.6009     0.0000 N
2 H2     0.0436    -0.3419     0.0000 H
3 H3     0.0436     1.0723     0.8165 H
4 H4     0.0436     1.0723    -0.8165 H
@<TRIPOS>BOND
1 1 2 1
2 1 3 1
3 1 4 1
