# Molecule Name
# Created by GaussView 6.0.16
#

#
#

@<TRIPOS>MOLECULE
Molecule Name
7 6
SMALL
NO_CHARGES


@<TRIPOS>ATOM
1 S1     0.2861     0.4087     0.0000 S
2 H2     1.5961     0.4087     0.0000 H
3 F3     0.2861    -1.1813     0.0000 F
4 F4    -1.3039     0.4087     0.0000 F
5 F5     0.2861     0.4087     1.5900 F
6 F6     0.2861     0.4087    -1.5900 F
7 F7     0.2861     1.9987     0.0000 F
@<TRIPOS>BOND
1 1 2 1
2 1 3 1
3 1 4 1
4 1 5 1
5 1 6 1
6 1 7 1
