# Molecule Name
# Created by GaussView 6.0.16
#

#
#

@<TRIPOS>MOLECULE
Molecule Name
6 5
SMALL
NO_CHARGES


@<TRIPOS>ATOM
1 S1     0.2861     0.4087     0.0000 S
2 H2     1.4395     0.8503    -0.4367 H
3 O3     0.0384    -1.1462    -0.5567 O
4 O4     0.2861     0.4087     1.6700 O
5 O5    -0.9366     1.4006    -0.5567 O
6 H6    -0.5604     2.1046    -1.0901 H
@<TRIPOS>BOND
1 1 2 1
2 1 3 1
3 1 4 1
4 1 5 1
5 5 6 1
