# Molecule Name
# Created by GaussView 6.0.16
#

#
#

@<TRIPOS>MOLECULE
Molecule Name
8 7
SMALL
NO_CHARGES


@<TRIPOS>ATOM
1 C1    -0.2897     0.6009     0.0000 C
2 H2     0.0670    -0.4080     0.0000 H
3 H3     0.0670     1.1053    -0.8737 H
4 H4    -1.3597     0.6009     0.0000 H
5 C5     0.2237     1.3268     1.2574 C
6 H6    -0.1314     2.3362     1.2565 H
7 H7    -0.1346     0.8235     2.1311 H
8 H8     1.2937     1.3251     1.2584 H
@<TRIPOS>BOND
1 1 2 1
2 1 3 1
3 1 4 1
4 1 5 1
5 5 6 1
6 5 7 1
7 5 8 1
