# Molecule Name
# Created by GaussView 6.0.16
#

#
#

@<TRIPOS>MOLECULE
Molecule Name
10 9
SMALL
NO_CHARGES


@<TRIPOS>ATOM
1 C1    -0.7671     1.9489     0.0000 C
2 H2    -0.4107     2.4535    -0.8737 H
3 H3    -1.8371     1.9483     0.0000 H
4 H4    -0.4107     2.4535     0.8737 H
5 N5    -0.2764     0.5632     0.0000 N
6 H6     0.7236     0.5638    -0.0018 H
7 C7    -0.7638    -0.1292     1.2016 C
8 H8    -1.8338    -0.1294     1.2038 H
9 H9    -0.4070    -1.1380     1.2014 H
10 H10    -0.4054     0.3757     2.0743 H
@<TRIPOS>BOND
1 1 2 1
2 1 3 1
3 1 4 1
4 1 5 1
5 5 6 1
6 5 7 1
7 7 8 1
8 7 9 1
9 7 10 1
