# Molecule Name
# Created by GaussView 6.0.16
#

#
#

@<TRIPOS>MOLECULE
Molecule Name
6 5
SMALL
NO_CHARGES


@<TRIPOS>ATOM
1 O1    -0.2897     0.6009     0.0000 O
2 H2     0.6703     0.6009    -0.0018 H
3 C3    -0.7671     1.9489     0.0000 C
4 H4    -0.4107     2.4535    -0.8737 H
5 H5    -1.8371     1.9483     0.0000 H
6 H6    -0.4107     2.4535     0.8737 H
@<TRIPOS>BOND
1 1 2 1
2 1 3 1
3 3 4 1
4 3 5 1
5 3 6 1
